<?xml version="1.0" encoding="UTF-8"?>

<!-- generated on Thu May  7 13:34:45 2020 by Eclipse SUMO duarouter Version 1.6.0
<configuration xmlns:xsi="http://www.w3.org/2001/XMLSchema-instance" xsi:noNamespaceSchemaLocation="http://sumo.dlr.de/xsd/duarouterConfiguration.xsd">

    <input>
        <net-file value="map.net.xml"/>
        <route-files value="trip.trips.xml"/>
    </input>

    <output>
        <output-file value="route.rou.xml"/>
        <alternatives-output value="route.rou.alt.xml"/>
    </output>

    <processing>
        <repair value="true"/>
    </processing>

    <report>
        <ignore-errors value="true"/>
    </report>

</configuration>
-->

<routes xmlns:xsi="http://www.w3.org/2001/XMLSchema-instance" xsi:noNamespaceSchemaLocation="http://sumo.dlr.de/xsd/routes_file.xsd">
    <vehicle id="0" depart="0.00" departLane="best" departPos="random_free" departSpeed="max">
        <route edges="-155884583#0 155884667#1 776135747 155884892#3 155884892#4 155884892#5 719079741 719079740 36042858#0 36042858#1 36042858#2 36042858#3 36042858#4 36042858#5 36042858#6 36042858#7 272807697#4 272807695 272807696#0 272807696#1 272807696#2 272807696#3 272807696#4 272807696#5 450329832 719086626#0 70366636#0 70366636#1 -580762514#0 -580762517 -70366622#10 -70366622#9 -70366622#8 -70366622#7 -70366630#0 70366630#0"/>
    </vehicle>
    <vehicle id="1" depart="1.00" departLane="best" departPos="random_free" departSpeed="max">
        <route edges="155884757#0 155884936#2 155884936#3 155884936#4 297150512#4 297150512#5 297150512#6 297150514 297150516#5 297150516#6 -580762514#2 -580762514#1 -580762514#0 -580762517 -70366622#10 -70366622#9 -70366622#8 -70366622#7 -70366622#6 -70366622#5 -70366622#4 70366631#1 -70366631#1"/>
    </vehicle>
    <vehicle id="2" depart="2.00" departLane="best" departPos="random_free" departSpeed="max">
        <route edges="155884888#3 155884978#3 580762499 704059349#0 704059349#1 704059349#2 297150515#0 297150515#1 297150515#2 698505664 448104028#1 719079739 -698524232#1 -698524232#0 698524232#0 121790159 121790162#4 121790162#0 138715655#0 138715655#1 138715655#2"/>
    </vehicle>
    <vehicle id="5" depart="5.00" departLane="best" departPos="random_free" departSpeed="max">
        <route edges="70366639#1 70366651#1 297150516#6 297150516#7 297150516#8 297150516#9 450329830 297150513"/>
    </vehicle>
    <vehicle id="6" depart="6.00" departLane="best" departPos="random_free" departSpeed="max">
        <route edges="-160221092#3 -160221092#2 -160221092#1 -160221092#0 -160220981#1 -160220981#0 -160221100#0 290357829#13 290357829#14 290357829#15 290357829#16 290357829#17 290357829#18 290357829#19 290357829#20 290357829#21 290358076#2 290357830#0 290357830#1 297150521#8 297150521#0 581070257#0 581070257#1 581070257#2 297150520#0 297150520#1 297150520#2 297150520#3 297150520#4 297150520#5 297150520#6 297150520#7 297150520#8 297150520#9 297150520#10 297150520#11 297150520#12 297150520#13 297150520#14 -448479259 -580388353 580365555#0 580365555#1 580365555#2 580365555#3 580365555#4 580365555#5 580365549 704766276 580365542 160221907#0 447167126#0 447167126#1 447167126#2 447167126#3 447130157#0 447130157#1 447130157#2 447130157#3"/>
    </vehicle>
    <vehicle id="7" depart="7.00" departLane="best" departPos="random_free" departSpeed="max">
        <route edges="449303115 -448754087#2 580762507 -776902317#1 -776902317#0 -119293250#3 -119293250#2 -119293250#1 -119293250#0 138715653#5 138715653#6 698524232#0 121790159 121790162#4 121790162#0 138715655#0 138715655#1 138715655#2 138715655#3 138715655#4 121790161#2 121790161#3 121790161#4 421780722 -138715643#4 -138715643#3 -138715643#2 -138715643#1 -138715643#0 -138715651#8 -138715651#7"/>
    </vehicle>
    <vehicle id="8" depart="8.00" departLane="best" departPos="random_free" departSpeed="max">
        <route edges="-70366624#2 70366643#7 70366643#8 70366643#9 719086630 719086629#0 70366636#1 70366638#0 70366638#1 138715653#0 138715653#1 -138715653#1"/>
    </vehicle>
    <vehicle id="9" depart="9.00" departLane="best" departPos="random_free" departSpeed="max">
        <route edges="-138715653#5 138715653#5 138715653#6 698524232#0 698524232#1 -719079739 -448104028#1 -698505664 297150515#3 297150515#4 297150516#0 297150516#1 70366640 297150512#9 -580762499 -155884978#3 -155884978#2 -155884978#1 155884834#0"/>
    </vehicle>
    <vehicle id="14" depart="14.00" departLane="best" departPos="random_free" departSpeed="max">
        <route edges="435371169 -70366649#0 70366643#0 70366643#1 70366643#2 70366643#3 70366643#4 70366643#5 70366643#6 -70366624#1 -70366624#0 727409995#0 727409995#1 727409995#2 719086628 719086627#0 719086627#1 719086627#2 719086627#3 450329831 223092566 297150512#0 297150512#1 297150512#2 297150512#3 297150512#4 447331532#0 155884978#6"/>
    </vehicle>
    <vehicle id="15" depart="15.00" departLane="best" departPos="random_free" departSpeed="max">
        <route edges="581070257#0 -581070228 581525115 -449662175#0 -160223807#6"/>
    </vehicle>
    <vehicle id="16" depart="16.00" departLane="best" departPos="random_free" departSpeed="max">
        <route edges="69358194#1 69358194#2 69358194#3 69358194#4 297150521#6 160221099 290358076#0 290357829#0 290357829#1 290357829#2 290357829#3 290357829#4 290357829#5 290357829#6 290357829#7 290357829#8 290357829#9 290357829#10 457148927#0 457148927#1 457148927#2 290466328 734309787"/>
    </vehicle>
    <vehicle id="17" depart="17.00" departLane="best" departPos="random_free" departSpeed="max">
        <route edges="121793746#2 121793746#3 121793746#4 272807696#1"/>
    </vehicle>
    <vehicle id="18" depart="18.00" departLane="best" departPos="random_free" departSpeed="max">
        <route edges="683501934#1 -683501934#1 -581070225#6 -581070225#5 -581070225#4 704766265 -446964291#1 -446964291#0 -69358207#5 -69358207#4 -69358207#3 -69358207#2 -69358207#1 -69358207#0 448479259 -297150520#14 -297150520#13 -297150520#12 -297150520#11 -297150520#10 -297150520#9 -297150520#8 -297150520#7 -297150520#6 -297150520#5 -297150520#4 -297150520#3 -297150520#2 -297150520#1 -297150520#0 -581070257#2 -581070257#1 -581070257#0 297150521#1 297150521#2 297150521#3 297150521#4 297150521#5 297150521#6 160221099 290358076#0 290357829#0 290357829#1 290357829#2 290357829#3 290357829#4 290357829#5 290357829#6 290357829#7 290357829#8 160220957"/>
    </vehicle>
    <vehicle id="23" depart="23.00" departLane="best" departPos="random_free" departSpeed="max">
        <route edges="776902317#3 -776902317#3 -124892537#1 124892522#0"/>
    </vehicle>
    <vehicle id="24" depart="24.00" departLane="best" departPos="random_free" departSpeed="max">
        <route edges="684945821 -684945817 155884740#1 155885005#2 155884604 36042856#2 36042856#3 36042858#1 36042858#2 36042858#3 36042858#4 36042858#5 36042858#6 36042858#7 272807697#4 272807695 272807696#0 272807696#1 272807696#2 272807696#3 272807696#4 272807696#5 450329832 719086626#0 70366636#0 70366636#1 -580762514#0 -580762517 -70366622#10 -70366622#9 70366650#1 70366628#9"/>
    </vehicle>
    <vehicle id="26" depart="26.00" departLane="best" departPos="random_free" departSpeed="max">
        <route edges="160220945#3 -738397536 290360543#2 290360543#3 290360543#4 290357829#20 290358213 290357829#1 290357829#2 290357829#3 290357829#4 290357829#5 290357829#6 290358214 290357829#18 160220945#0 290360977#0 290360977#1 160221009#0 160221009#1 -160221026#0"/>
    </vehicle>
    <vehicle id="33" depart="33.00" departLane="best" departPos="random_free" departSpeed="max">
        <route edges="290357108 290357829#10 290357829#11 290357829#12 290357829#13 290357829#14 290357829#15 290357829#16 290357829#17 290357829#18 290357829#19 290357829#20 290357829#21 290358076#2 290357830#0 290357830#1 297150521#8 297150521#0 581070257#0 581070257#1 581070257#2 297150520#0 297150520#1 297150520#2 297150520#3 297150520#4 297150520#5 297150520#6 297150520#7 297150520#8 297150520#9 297150520#10 297150520#11 297150520#12 297150520#13 297150520#14 -448479259 69358207#0 69358207#1 69358207#2 69358207#3 69358207#4 69358207#5 69358207#6 69358207#7 69358207#8 69358207#9 69358207#10 -704766248 704766264#3"/>
    </vehicle>
    <vehicle id="34" depart="34.00" departLane="best" departPos="random_free" departSpeed="max">
        <route edges="-297150520#5 -581070243"/>
    </vehicle>
    <vehicle id="37" depart="37.00" departLane="best" departPos="random_free" departSpeed="max">
        <route edges="457147597 121793746#0 155884969#0 155884969#1 155884969#2 155884969#3 155884969#4 297150512#6 297150514 297150516#5 -70366651#1 -70366651#0 70366638#1 70366646#0 -779464697 -776902317#4 776902317#4"/>
    </vehicle>
</routes>
