<?xml version="1.0" encoding="UTF-8"?>
<!-- generated on 2020-05-07 13:34:33.271133 by randomTrips.py UNKNOWN
  options: -n map.net.xml -e 38 -l <doubleminus>trip-attributes=departLane="best" departSpeed="max" departPos="random_free" -o trip.trips.xml
-->
<routes xmlns:xsi="http://www.w3.org/2001/XMLSchema-instance" xsi:noNamespaceSchemaLocation="http://sumo.dlr.de/xsd/routes_file.xsd">
    <trip id="0" depart="0.00" from="-155884583#0" to="70366630#0" departLane="best" departSpeed="max" departPos="random_free"/>
    <trip id="1" depart="1.00" from="155884757#0" to="-70366631#1" departLane="best" departSpeed="max" departPos="random_free"/>
    <trip id="2" depart="2.00" from="155884888#3" to="138715655#2" departLane="best" departSpeed="max" departPos="random_free"/>
    <trip id="3" depart="3.00" from="421778328#0" to="-160220996#0" departLane="best" departSpeed="max" departPos="random_free"/>
    <trip id="4" depart="4.00" from="155884757#3" to="-581070257#0" departLane="best" departSpeed="max" departPos="random_free"/>
    <trip id="5" depart="5.00" from="70366639#1" to="297150513" departLane="best" departSpeed="max" departPos="random_free"/>
    <trip id="6" depart="6.00" from="-160221092#3" to="447130157#3" departLane="best" departSpeed="max" departPos="random_free"/>
    <trip id="7" depart="7.00" from="449303115" to="-138715651#7" departLane="best" departSpeed="max" departPos="random_free"/>
    <trip id="8" depart="8.00" from="-70366624#2" to="-138715653#1" departLane="best" departSpeed="max" departPos="random_free"/>
    <trip id="9" depart="9.00" from="-138715653#5" to="155884834#0" departLane="best" departSpeed="max" departPos="random_free"/>
    <trip id="10" depart="10.00" from="-290360668#4" to="297150513" departLane="best" departSpeed="max" departPos="random_free"/>
    <trip id="11" depart="11.00" from="-122095647" to="-70366630#1" departLane="best" departSpeed="max" departPos="random_free"/>
    <trip id="12" depart="12.00" from="-581070258" to="-155884915" departLane="best" departSpeed="max" departPos="random_free"/>
    <trip id="13" depart="13.00" from="421778328#0" to="-683501950" departLane="best" departSpeed="max" departPos="random_free"/>
    <trip id="14" depart="14.00" from="435371169" to="155884978#6" departLane="best" departSpeed="max" departPos="random_free"/>
    <trip id="15" depart="15.00" from="581070257#0" to="-160223807#6" departLane="best" departSpeed="max" departPos="random_free"/>
    <trip id="16" depart="16.00" from="69358194#1" to="734309787" departLane="best" departSpeed="max" departPos="random_free"/>
    <trip id="17" depart="17.00" from="121793746#2" to="272807696#1" departLane="best" departSpeed="max" departPos="random_free"/>
    <trip id="18" depart="18.00" from="683501934#1" to="160220957" departLane="best" departSpeed="max" departPos="random_free"/>
    <trip id="19" depart="19.00" from="581070251#0" to="155884892#3" departLane="best" departSpeed="max" departPos="random_free"/>
    <trip id="20" depart="20.00" from="-155884978#6" to="-290359245#1" departLane="best" departSpeed="max" departPos="random_free"/>
    <trip id="21" depart="21.00" from="155884915" to="580365563" departLane="best" departSpeed="max" departPos="random_free"/>
    <trip id="22" depart="22.00" from="-160221018" to="155884757#1" departLane="best" departSpeed="max" departPos="random_free"/>
    <trip id="23" depart="23.00" from="776902317#3" to="124892522#0" departLane="best" departSpeed="max" departPos="random_free"/>
    <trip id="24" depart="24.00" from="684945821" to="70366628#9" departLane="best" departSpeed="max" departPos="random_free"/>
    <trip id="25" depart="25.00" from="156236537" to="449662175#4" departLane="best" departSpeed="max" departPos="random_free"/>
    <trip id="26" depart="26.00" from="160220945#3" to="-160221026#0" departLane="best" departSpeed="max" departPos="random_free"/>
    <trip id="27" depart="27.00" from="457147597" to="-160221008#1" departLane="best" departSpeed="max" departPos="random_free"/>
    <trip id="28" depart="28.00" from="-580365560" to="155884978#6" departLane="best" departSpeed="max" departPos="random_free"/>
    <trip id="29" depart="29.00" from="-290360668#4" to="137474435#11" departLane="best" departSpeed="max" departPos="random_free"/>
    <trip id="30" depart="30.00" from="684945821" to="446964291#0" departLane="best" departSpeed="max" departPos="random_free"/>
    <trip id="31" depart="31.00" from="-70366629#0" to="290357829#17" departLane="best" departSpeed="max" departPos="random_free"/>
    <trip id="32" depart="32.00" from="155884915" to="-122095646#2" departLane="best" departSpeed="max" departPos="random_free"/>
    <trip id="33" depart="33.00" from="290357108" to="704766264#3" departLane="best" departSpeed="max" departPos="random_free"/>
    <trip id="34" depart="34.00" from="-297150520#5" to="-581070243" departLane="best" departSpeed="max" departPos="random_free"/>
    <trip id="35" depart="35.00" from="-70366646#5" to="447167126#3" departLane="best" departSpeed="max" departPos="random_free"/>
    <trip id="36" depart="36.00" from="447331532#1" to="155884722" departLane="best" departSpeed="max" departPos="random_free"/>
    <trip id="37" depart="37.00" from="457147597" to="776902317#4" departLane="best" departSpeed="max" departPos="random_free"/>
</routes>
